<routes>
              <vType accel="1.0" deccel="4.5" id="Car" length="5.0" minGap="2.5" maxSpeed="25" sigma="0.5"/>
              <vType accel="1.0" deccel="5.0" id="Bus" length="12.0" maxSpeed="10" sigma="0.0"/>
              <route id="r1" edges="-h11 -h12 -h13"/>
              <route id="r2" edges="-v11 -v12 -v13"/>
              <route id="r3" edges="-h21 -h22 -h23"/>
              <route id="r4" edges="-v21 -v22 -v23"/>
              <route id="r5" edges="-h11 v11"/>
              <route id="r6" edges="-h21 v12 v11"/>
              <route id="r7" edges="-h11 -v12 -v13"/>
              <route id="r8" edges="-h21 -v13"/>
              <route id="r9" edges="h13 h12 h11"/>
              <route id="r10" edges="v13 v12 v11"/>
              <route id="r11" edges="h23 h22 h21"/>
              <route id="r12" edges="v23 v22 v21"/>
              <route id="r13" edges="-v11 -h12 -h13"/>
              <route id="r14" edges="v13 -h22 -h23"/>
              <route id="r15" edges="v13 h21"/>
              <route id="r16" edges="v23 -h23"/>
 <vehicle id="v_0" type="Car" route="r9" depart="1282" />
 <vehicle id="v_1" type="Car" route="r2" depart="1799" />
 <vehicle id="v_2" type="Car" route="r12" depart="1857" />
 <vehicle id="v_3" type="Car" route="r3" depart="1921" />
 <vehicle id="v_4" type="Car" route="r15" depart="2011" />
 <vehicle id="v_5" type="Car" route="r13" depart="2098" />
 <vehicle id="v_6" type="Car" route="r2" depart="2254" />
 <vehicle id="v_7" type="Car" route="r14" depart="2264" />
 <vehicle id="v_8" type="Car" route="r5" depart="2364" />
 <vehicle id="v_9" type="Car" route="r9" depart="2386" />
 <vehicle id="v_10" type="Car" route="r14" depart="2409" />
 <vehicle id="v_11" type="Car" route="r10" depart="2434" />
 <vehicle id="v_12" type="Car" route="r16" depart="2463" />
 <vehicle id="v_13" type="Car" route="r9" depart="2465" />
 <vehicle id="v_14" type="Car" route="r12" depart="2482" />
 <vehicle id="v_15" type="Car" route="r4" depart="2500" />
 <vehicle id="v_16" type="Car" route="r12" depart="2504" />
 <vehicle id="v_17" type="Car" route="r12" depart="2573" />
 <vehicle id="v_18" type="Car" route="r9" depart="2574" />
 <vehicle id="v_19" type="Car" route="r10" depart="2601" />
 <vehicle id="v_20" type="Car" route="r16" depart="2613" />
 <vehicle id="v_21" type="Car" route="r12" depart="2632" />
 <vehicle id="v_22" type="Car" route="r2" depart="2648" />
 <vehicle id="v_23" type="Car" route="r9" depart="2652" />
 <vehicle id="v_24" type="Car" route="r4" depart="2697" />
 <vehicle id="v_25" type="Car" route="r14" depart="2746" />
 <vehicle id="v_26" type="Car" route="r2" depart="2748" />
 <vehicle id="v_27" type="Car" route="r12" depart="2751" />
 <vehicle id="v_28" type="Car" route="r16" depart="2788" />
 <vehicle id="v_29" type="Car" route="r11" depart="2791" />
 <vehicle id="v_30" type="Car" route="r12" depart="2814" />
 <vehicle id="v_31" type="Car" route="r6" depart="2843" />
 <vehicle id="v_32" type="Car" route="r6" depart="2847" />
 <vehicle id="v_33" type="Car" route="r3" depart="2860" />
 <vehicle id="v_34" type="Car" route="r5" depart="2867" />
 <vehicle id="v_35" type="Car" route="r10" depart="2887" />
 <vehicle id="v_36" type="Car" route="r15" depart="2902" />
 <vehicle id="v_37" type="Car" route="r5" depart="2903" />
 <vehicle id="v_38" type="Car" route="r11" depart="2912" />
 <vehicle id="v_39" type="Car" route="r2" depart="2922" />
 <vehicle id="v_40" type="Car" route="r12" depart="2935" />
 <vehicle id="v_41" type="Car" route="r13" depart="2952" />
 <vehicle id="v_42" type="Car" route="r14" depart="2971" />
 <vehicle id="v_43" type="Car" route="r16" depart="2973" />
 <vehicle id="v_44" type="Car" route="r2" depart="2977" />
 <vehicle id="v_45" type="Car" route="r11" depart="2984" />
 <vehicle id="v_46" type="Car" route="r12" depart="3004" />
 <vehicle id="v_47" type="Car" route="r1" depart="3007" />
 <vehicle id="v_48" type="Car" route="r6" depart="3010" />
 <vehicle id="v_49" type="Car" route="r5" depart="3017" />
 <vehicle id="v_50" type="Car" route="r10" depart="3021" />
 <vehicle id="v_51" type="Car" route="r13" depart="3034" />
 <vehicle id="v_52" type="Car" route="r14" depart="3034" />
 <vehicle id="v_53" type="Car" route="r5" depart="3051" />
 <vehicle id="v_54" type="Car" route="r16" depart="3052" />
 <vehicle id="v_55" type="Car" route="r13" depart="3054" />
 <vehicle id="v_56" type="Car" route="r11" depart="3057" />
 <vehicle id="v_57" type="Car" route="r15" depart="3068" />
 <vehicle id="v_58" type="Car" route="r14" depart="3075" />
 <vehicle id="v_59" type="Car" route="r1" depart="3076" />
 <vehicle id="v_60" type="Car" route="r13" depart="3086" />
 <vehicle id="v_61" type="Car" route="r6" depart="3096" />
 <vehicle id="v_62" type="Car" route="r2" depart="3099" />
 <vehicle id="v_63" type="Car" route="r5" depart="3099" />
 <vehicle id="v_64" type="Car" route="r15" depart="3115" />
 <vehicle id="v_65" type="Car" route="r9" depart="3121" />
 <vehicle id="v_66" type="Car" route="r5" depart="3135" />
 <vehicle id="v_67" type="Car" route="r8" depart="3141" />
 <vehicle id="v_68" type="Car" route="r12" depart="3150" />
 <vehicle id="v_69" type="Car" route="r11" depart="3152" />
 <vehicle id="v_70" type="Car" route="r10" depart="3152" />
 <vehicle id="v_71" type="Car" route="r1" depart="3156" />
 <vehicle id="v_72" type="Car" route="r5" depart="3165" />
 <vehicle id="v_73" type="Car" route="r8" depart="3167" />
 <vehicle id="v_74" type="Car" route="r12" depart="3170" />
 <vehicle id="v_75" type="Car" route="r9" depart="3170" />
 <vehicle id="v_76" type="Car" route="r11" depart="3171" />
 <vehicle id="v_77" type="Car" route="r8" depart="3173" />
 <vehicle id="v_78" type="Car" route="r4" depart="3177" />
 <vehicle id="v_79" type="Car" route="r3" depart="3178" />
 <vehicle id="v_80" type="Car" route="r2" depart="3181" />
 <vehicle id="v_81" type="Car" route="r8" depart="3183" />
 <vehicle id="v_82" type="Car" route="r2" depart="3183" />
 <vehicle id="v_83" type="Car" route="r16" depart="3200" />
 <vehicle id="v_84" type="Car" route="r2" depart="3203" />
 <vehicle id="v_85" type="Car" route="r2" depart="3208" />
 <vehicle id="v_86" type="Car" route="r9" depart="3212" />
 <vehicle id="v_87" type="Car" route="r5" depart="3219" />
 <vehicle id="v_88" type="Car" route="r16" depart="3221" />
 <vehicle id="v_89" type="Car" route="r10" depart="3227" />
 <vehicle id="v_90" type="Car" route="r6" depart="3237" />
 <vehicle id="v_91" type="Car" route="r3" depart="3237" />
 <vehicle id="v_92" type="Car" route="r13" depart="3238" />
 <vehicle id="v_93" type="Car" route="r14" depart="3249" />
 <vehicle id="v_94" type="Car" route="r10" depart="3260" />
 <vehicle id="v_95" type="Car" route="r2" depart="3284" />
 <vehicle id="v_96" type="Car" route="r14" depart="3286" />
 <vehicle id="v_97" type="Car" route="r5" depart="3288" />
 <vehicle id="v_98" type="Car" route="r16" depart="3296" />
 <vehicle id="v_99" type="Car" route="r9" depart="3300" />
 <vehicle id="v_100" type="Car" route="r1" depart="3314" />
 <vehicle id="v_101" type="Car" route="r15" depart="3318" />
 <vehicle id="v_102" type="Car" route="r9" depart="3321" />
 <vehicle id="v_103" type="Car" route="r5" depart="3332" />
 <vehicle id="v_104" type="Car" route="r5" depart="3348" />
 <vehicle id="v_105" type="Car" route="r9" depart="3348" />
 <vehicle id="v_106" type="Car" route="r9" depart="3350" />
 <vehicle id="v_107" type="Car" route="r3" depart="3363" />
 <vehicle id="v_108" type="Car" route="r6" depart="3366" />
 <vehicle id="v_109" type="Car" route="r8" depart="3371" />
 <vehicle id="v_110" type="Car" route="r2" depart="3381" />
 <vehicle id="v_111" type="Car" route="r9" depart="3383" />
 <vehicle id="v_112" type="Car" route="r10" depart="3392" />
 <vehicle id="v_113" type="Car" route="r8" depart="3395" />
 <vehicle id="v_114" type="Car" route="r14" depart="3395" />
 <vehicle id="v_115" type="Car" route="r1" depart="3396" />
 <vehicle id="v_116" type="Car" route="r14" depart="3403" />
 <vehicle id="v_117" type="Car" route="r1" depart="3405" />
 <vehicle id="v_118" type="Car" route="r4" depart="3410" />
 <vehicle id="v_119" type="Car" route="r14" depart="3413" />
 <vehicle id="v_120" type="Car" route="r2" depart="3422" />
 <vehicle id="v_121" type="Car" route="r6" depart="3424" />
 <vehicle id="v_122" type="Car" route="r2" depart="3426" />
 <vehicle id="v_123" type="Car" route="r15" depart="3430" />
 <vehicle id="v_124" type="Car" route="r15" depart="3435" />
 <vehicle id="v_125" type="Car" route="r15" depart="3445" />
 <vehicle id="v_126" type="Car" route="r9" depart="3453" />
 <vehicle id="v_127" type="Car" route="r5" depart="3456" />
 <vehicle id="v_128" type="Car" route="r9" depart="3458" />
 <vehicle id="v_129" type="Car" route="r10" depart="3461" />
 <vehicle id="v_130" type="Car" route="r6" depart="3469" />
 <vehicle id="v_131" type="Car" route="r12" depart="3477" />
 <vehicle id="v_132" type="Car" route="r10" depart="3486" />
 <vehicle id="v_133" type="Car" route="r7" depart="3502" />
 <vehicle id="v_134" type="Car" route="r10" depart="3503" />
 <vehicle id="v_135" type="Car" route="r6" depart="3505" />
 <vehicle id="v_136" type="Car" route="r1" depart="3505" />
 <vehicle id="v_137" type="Car" route="r13" depart="3511" />
 <vehicle id="v_138" type="Car" route="r5" depart="3512" />
 <vehicle id="v_139" type="Car" route="r9" depart="3516" />
 <vehicle id="v_140" type="Car" route="r9" depart="3516" />
 <vehicle id="v_141" type="Car" route="r8" depart="3517" />
 <vehicle id="v_142" type="Car" route="r7" depart="3525" />
 <vehicle id="v_143" type="Car" route="r8" depart="3536" />
 <vehicle id="v_144" type="Car" route="r6" depart="3536" />
 <vehicle id="v_145" type="Car" route="r16" depart="3544" />
 <vehicle id="v_146" type="Car" route="r5" depart="3545" />
 <vehicle id="v_147" type="Car" route="r1" depart="3547" />
 <vehicle id="v_148" type="Car" route="r16" depart="3552" />
 <vehicle id="v_149" type="Car" route="r12" depart="3553" />
 <vehicle id="v_150" type="Car" route="r1" depart="3558" />
 <vehicle id="v_151" type="Car" route="r2" depart="3565" />
 <vehicle id="v_152" type="Car" route="r1" depart="3565" />
 <vehicle id="v_153" type="Car" route="r3" depart="3566" />
 <vehicle id="v_154" type="Car" route="r10" depart="3577" />
 <vehicle id="v_155" type="Car" route="r9" depart="3584" />
 <vehicle id="v_156" type="Car" route="r6" depart="3586" />
 <vehicle id="v_157" type="Car" route="r4" depart="3589" />
 <vehicle id="v_158" type="Car" route="r10" depart="3590" />
 <vehicle id="v_159" type="Car" route="r7" depart="3595" />
 <vehicle id="v_160" type="Car" route="r5" depart="3595" />
 <vehicle id="v_161" type="Car" route="r11" depart="3596" />
 <vehicle id="v_162" type="Car" route="r13" depart="3607" />
 <vehicle id="v_163" type="Car" route="r15" depart="3610" />
 <vehicle id="v_164" type="Car" route="r13" depart="3612" />
 <vehicle id="v_165" type="Car" route="r1" depart="3614" />
 <vehicle id="v_166" type="Car" route="r13" depart="3614" />
 <vehicle id="v_167" type="Car" route="r16" depart="3616" />
 <vehicle id="v_168" type="Car" route="r15" depart="3618" />
 <vehicle id="v_169" type="Car" route="r3" depart="3622" />
 <vehicle id="v_170" type="Car" route="r15" depart="3628" />
 <vehicle id="v_171" type="Car" route="r2" depart="3634" />
 <vehicle id="v_172" type="Car" route="r14" depart="3634" />
 <vehicle id="v_173" type="Car" route="r15" depart="3637" />
 <vehicle id="v_174" type="Car" route="r3" depart="3640" />
 <vehicle id="v_175" type="Car" route="r12" depart="3648" />
 <vehicle id="v_176" type="Car" route="r15" depart="3648" />
 <vehicle id="v_177" type="Car" route="r16" depart="3652" />
 <vehicle id="v_178" type="Car" route="r8" depart="3661" />
 <vehicle id="v_179" type="Car" route="r2" depart="3665" />
 <vehicle id="v_180" type="Car" route="r2" depart="3668" />
 <vehicle id="v_181" type="Car" route="r8" depart="3675" />
 <vehicle id="v_182" type="Car" route="r13" depart="3678" />
 <vehicle id="v_183" type="Car" route="r5" depart="3679" />
 <vehicle id="v_184" type="Car" route="r10" depart="3683" />
 <vehicle id="v_185" type="Car" route="r6" depart="3688" />
 <vehicle id="v_186" type="Car" route="r12" depart="3690" />
 <vehicle id="v_187" type="Car" route="r4" depart="3690" />
 <vehicle id="v_188" type="Car" route="r3" depart="3699" />
 <vehicle id="v_189" type="Car" route="r7" depart="3700" />
 <vehicle id="v_190" type="Car" route="r13" depart="3701" />
 <vehicle id="v_191" type="Car" route="r15" depart="3702" />
 <vehicle id="v_192" type="Car" route="r13" depart="3707" />
 <vehicle id="v_193" type="Car" route="r2" depart="3710" />
 <vehicle id="v_194" type="Car" route="r14" depart="3711" />
 <vehicle id="v_195" type="Car" route="r3" depart="3715" />
 <vehicle id="v_196" type="Car" route="r2" depart="3717" />
 <vehicle id="v_197" type="Car" route="r7" depart="3722" />
 <vehicle id="v_198" type="Car" route="r9" depart="3722" />
 <vehicle id="v_199" type="Car" route="r10" depart="3723" />
 <vehicle id="v_200" type="Car" route="r1" depart="3723" />
 <vehicle id="v_201" type="Car" route="r8" depart="3724" />
 <vehicle id="v_202" type="Car" route="r13" depart="3724" />
 <vehicle id="v_203" type="Car" route="r6" depart="3726" />
 <vehicle id="v_204" type="Car" route="r12" depart="3727" />
 <vehicle id="v_205" type="Car" route="r13" depart="3733" />
 <vehicle id="v_206" type="Car" route="r11" depart="3739" />
 <vehicle id="v_207" type="Car" route="r9" depart="3743" />
 <vehicle id="v_208" type="Car" route="r7" depart="3744" />
 <vehicle id="v_209" type="Car" route="r13" depart="3746" />
 <vehicle id="v_210" type="Car" route="r2" depart="3748" />
 <vehicle id="v_211" type="Car" route="r13" depart="3748" />
 <vehicle id="v_212" type="Car" route="r13" depart="3751" />
 <vehicle id="v_213" type="Car" route="r3" depart="3753" />
 <vehicle id="v_214" type="Car" route="r9" depart="3754" />
 <vehicle id="v_215" type="Car" route="r9" depart="3755" />
 <vehicle id="v_216" type="Car" route="r11" depart="3755" />
 <vehicle id="v_217" type="Car" route="r1" depart="3756" />
 <vehicle id="v_218" type="Car" route="r16" depart="3758" />
 <vehicle id="v_219" type="Car" route="r9" depart="3768" />
 <vehicle id="v_220" type="Car" route="r8" depart="3776" />
 <vehicle id="v_221" type="Car" route="r1" depart="3779" />
 <vehicle id="v_222" type="Car" route="r1" depart="3784" />
 <vehicle id="v_223" type="Car" route="r9" depart="3791" />
 <vehicle id="v_224" type="Car" route="r3" depart="3794" />
 <vehicle id="v_225" type="Car" route="r16" depart="3796" />
 <vehicle id="v_226" type="Car" route="r4" depart="3796" />
 <vehicle id="v_227" type="Car" route="r16" depart="3798" />
 <vehicle id="v_228" type="Car" route="r4" depart="3801" />
 <vehicle id="v_229" type="Car" route="r4" depart="3801" />
 <vehicle id="v_230" type="Car" route="r14" depart="3808" />
 <vehicle id="v_231" type="Car" route="r4" depart="3811" />
 <vehicle id="v_232" type="Car" route="r15" depart="3811" />
 <vehicle id="v_233" type="Car" route="r3" depart="3813" />
 <vehicle id="v_234" type="Car" route="r14" depart="3819" />
 <vehicle id="v_235" type="Car" route="r5" depart="3825" />
 <vehicle id="v_236" type="Car" route="r10" depart="3834" />
 <vehicle id="v_237" type="Car" route="r4" depart="3835" />
 <vehicle id="v_238" type="Car" route="r14" depart="3835" />
 <vehicle id="v_239" type="Car" route="r15" depart="3841" />
 <vehicle id="v_240" type="Car" route="r4" depart="3842" />
 <vehicle id="v_241" type="Car" route="r2" depart="3842" />
 <vehicle id="v_242" type="Car" route="r14" depart="3844" />
 <vehicle id="v_243" type="Car" route="r2" depart="3844" />
 <vehicle id="v_244" type="Car" route="r9" depart="3855" />
 <vehicle id="v_245" type="Car" route="r11" depart="3858" />
 <vehicle id="v_246" type="Car" route="r10" depart="3860" />
 <vehicle id="v_247" type="Car" route="r1" depart="3863" />
 <vehicle id="v_248" type="Car" route="r6" depart="3864" />
 <vehicle id="v_249" type="Car" route="r10" depart="3865" />
 <vehicle id="v_250" type="Car" route="r14" depart="3867" />
 <vehicle id="v_251" type="Car" route="r4" depart="3869" />
 <vehicle id="v_252" type="Car" route="r14" depart="3873" />
 <vehicle id="v_253" type="Car" route="r8" depart="3875" />
 <vehicle id="v_254" type="Car" route="r9" depart="3878" />
 <vehicle id="v_255" type="Car" route="r16" depart="3878" />
 <vehicle id="v_256" type="Car" route="r3" depart="3886" />
 <vehicle id="v_257" type="Car" route="r2" depart="3887" />
 <vehicle id="v_258" type="Car" route="r16" depart="3890" />
 <vehicle id="v_259" type="Car" route="r9" depart="3897" />
 <vehicle id="v_260" type="Car" route="r11" depart="3901" />
 <vehicle id="v_261" type="Car" route="r11" depart="3901" />
 <vehicle id="v_262" type="Car" route="r6" depart="3903" />
 <vehicle id="v_263" type="Car" route="r2" depart="3913" />
 <vehicle id="v_264" type="Car" route="r12" depart="3913" />
 <vehicle id="v_265" type="Car" route="r13" depart="3916" />
 <vehicle id="v_266" type="Car" route="r11" depart="3918" />
 <vehicle id="v_267" type="Car" route="r11" depart="3920" />
 <vehicle id="v_268" type="Car" route="r12" depart="3920" />
 <vehicle id="v_269" type="Car" route="r6" depart="3925" />
 <vehicle id="v_270" type="Car" route="r15" depart="3927" />
 <vehicle id="v_271" type="Car" route="r8" depart="3928" />
 <vehicle id="v_272" type="Car" route="r5" depart="3938" />
 <vehicle id="v_273" type="Car" route="r15" depart="3949" />
 <vehicle id="v_274" type="Car" route="r4" depart="3950" />
 <vehicle id="v_275" type="Car" route="r16" depart="3951" />
 <vehicle id="v_276" type="Car" route="r1" depart="3952" />
 <vehicle id="v_277" type="Car" route="r14" depart="3954" />
 <vehicle id="v_278" type="Car" route="r1" depart="3963" />
 <vehicle id="v_279" type="Car" route="r11" depart="3968" />
 <vehicle id="v_280" type="Car" route="r2" depart="3968" />
 <vehicle id="v_281" type="Car" route="r12" depart="3973" />
 <vehicle id="v_282" type="Car" route="r10" depart="3974" />
 <vehicle id="v_283" type="Car" route="r1" depart="3974" />
 <vehicle id="v_284" type="Car" route="r5" depart="3974" />
 <vehicle id="v_285" type="Car" route="r16" depart="3976" />
 <vehicle id="v_286" type="Car" route="r7" depart="3977" />
 <vehicle id="v_287" type="Car" route="r9" depart="3977" />
 <vehicle id="v_288" type="Car" route="r2" depart="3979" />
 <vehicle id="v_289" type="Car" route="r1" depart="3980" />
 <vehicle id="v_290" type="Car" route="r10" depart="3980" />
 <vehicle id="v_291" type="Car" route="r4" depart="3981" />
 <vehicle id="v_292" type="Car" route="r3" depart="3982" />
 <vehicle id="v_293" type="Car" route="r5" depart="3983" />
 <vehicle id="v_294" type="Car" route="r11" depart="3984" />
 <vehicle id="v_295" type="Car" route="r4" depart="3987" />
 <vehicle id="v_296" type="Car" route="r14" depart="3994" />
 <vehicle id="v_297" type="Car" route="r11" depart="3994" />
 <vehicle id="v_298" type="Car" route="r4" depart="3998" />
 <vehicle id="v_299" type="Car" route="r9" depart="3999" />
 <vehicle id="v_300" type="Car" route="r1" depart="3999" />
 <vehicle id="v_301" type="Car" route="r3" depart="4003" />
 <vehicle id="v_302" type="Car" route="r13" depart="4013" />
 <vehicle id="v_303" type="Car" route="r9" depart="4016" />
 <vehicle id="v_304" type="Car" route="r3" depart="4016" />
 <vehicle id="v_305" type="Car" route="r1" depart="4019" />
 <vehicle id="v_306" type="Car" route="r2" depart="4020" />
 <vehicle id="v_307" type="Car" route="r16" depart="4022" />
 <vehicle id="v_308" type="Car" route="r3" depart="4022" />
 <vehicle id="v_309" type="Car" route="r11" depart="4022" />
 <vehicle id="v_310" type="Car" route="r16" depart="4025" />
 <vehicle id="v_311" type="Car" route="r8" depart="4032" />
 <vehicle id="v_312" type="Car" route="r11" depart="4036" />
 <vehicle id="v_313" type="Car" route="r8" depart="4038" />
 <vehicle id="v_314" type="Car" route="r10" depart="4042" />
 <vehicle id="v_315" type="Car" route="r15" depart="4043" />
 <vehicle id="v_316" type="Car" route="r2" depart="4045" />
 <vehicle id="v_317" type="Car" route="r10" depart="4046" />
 <vehicle id="v_318" type="Car" route="r15" depart="4047" />
 <vehicle id="v_319" type="Car" route="r11" depart="4050" />
 <vehicle id="v_320" type="Car" route="r14" depart="4050" />
 <vehicle id="v_321" type="Car" route="r12" depart="4051" />
 <vehicle id="v_322" type="Car" route="r5" depart="4052" />
 <vehicle id="v_323" type="Car" route="r1" depart="4053" />
 <vehicle id="v_324" type="Car" route="r13" depart="4056" />
 <vehicle id="v_325" type="Car" route="r3" depart="4062" />
 <vehicle id="v_326" type="Car" route="r14" depart="4064" />
 <vehicle id="v_327" type="Car" route="r3" depart="4066" />
 <vehicle id="v_328" type="Car" route="r1" depart="4066" />
 <vehicle id="v_329" type="Car" route="r8" depart="4066" />
 <vehicle id="v_330" type="Car" route="r8" depart="4070" />
 <vehicle id="v_331" type="Car" route="r16" depart="4071" />
 <vehicle id="v_332" type="Car" route="r5" depart="4075" />
 <vehicle id="v_333" type="Car" route="r10" depart="4077" />
 <vehicle id="v_334" type="Car" route="r6" depart="4079" />
 <vehicle id="v_335" type="Car" route="r10" depart="4080" />
 <vehicle id="v_336" type="Car" route="r15" depart="4083" />
 <vehicle id="v_337" type="Car" route="r11" depart="4084" />
 <vehicle id="v_338" type="Car" route="r8" depart="4084" />
 <vehicle id="v_339" type="Car" route="r8" depart="4084" />
 <vehicle id="v_340" type="Car" route="r15" depart="4085" />
 <vehicle id="v_341" type="Car" route="r1" depart="4088" />
 <vehicle id="v_342" type="Car" route="r14" depart="4088" />
 <vehicle id="v_343" type="Car" route="r2" depart="4090" />
 <vehicle id="v_344" type="Car" route="r3" depart="4091" />
 <vehicle id="v_345" type="Car" route="r11" depart="4107" />
 <vehicle id="v_346" type="Car" route="r2" depart="4109" />
 <vehicle id="v_347" type="Car" route="r11" depart="4110" />
 <vehicle id="v_348" type="Car" route="r7" depart="4111" />
 <vehicle id="v_349" type="Car" route="r2" depart="4112" />
 <vehicle id="v_350" type="Car" route="r16" depart="4113" />
 <vehicle id="v_351" type="Car" route="r5" depart="4114" />
 <vehicle id="v_352" type="Car" route="r13" depart="4116" />
 <vehicle id="v_353" type="Car" route="r4" depart="4119" />
 <vehicle id="v_354" type="Car" route="r10" depart="4124" />
 <vehicle id="v_355" type="Car" route="r2" depart="4124" />
 <vehicle id="v_356" type="Car" route="r8" depart="4125" />
 <vehicle id="v_357" type="Car" route="r14" depart="4126" />
 <vehicle id="v_358" type="Car" route="r16" depart="4130" />
 <vehicle id="v_359" type="Car" route="r6" depart="4135" />
 <vehicle id="v_360" type="Car" route="r11" depart="4136" />
 <vehicle id="v_361" type="Car" route="r9" depart="4139" />
 <vehicle id="v_362" type="Car" route="r5" depart="4140" />
 <vehicle id="v_363" type="Car" route="r9" depart="4141" />
 <vehicle id="v_364" type="Car" route="r9" depart="4144" />
 <vehicle id="v_365" type="Car" route="r7" depart="4145" />
 <vehicle id="v_366" type="Car" route="r15" depart="4147" />
 <vehicle id="v_367" type="Car" route="r8" depart="4148" />
 <vehicle id="v_368" type="Car" route="r2" depart="4150" />
 <vehicle id="v_369" type="Car" route="r15" depart="4157" />
 <vehicle id="v_370" type="Car" route="r10" depart="4158" />
 <vehicle id="v_371" type="Car" route="r11" depart="4161" />
 <vehicle id="v_372" type="Car" route="r10" depart="4162" />
 <vehicle id="v_373" type="Car" route="r16" depart="4164" />
 <vehicle id="v_374" type="Car" route="r6" depart="4164" />
 <vehicle id="v_375" type="Car" route="r14" depart="4168" />
 <vehicle id="v_376" type="Car" route="r1" depart="4168" />
 <vehicle id="v_377" type="Car" route="r15" depart="4170" />
 <vehicle id="v_378" type="Car" route="r3" depart="4175" />
 <vehicle id="v_379" type="Car" route="r12" depart="4175" />
 <vehicle id="v_380" type="Car" route="r8" depart="4178" />
 <vehicle id="v_381" type="Car" route="r10" depart="4179" />
 <vehicle id="v_382" type="Car" route="r12" depart="4181" />
 <vehicle id="v_383" type="Car" route="r9" depart="4183" />
 <vehicle id="v_384" type="Car" route="r10" depart="4184" />
 <vehicle id="v_385" type="Car" route="r5" depart="4184" />
 <vehicle id="v_386" type="Car" route="r9" depart="4188" />
 <vehicle id="v_387" type="Car" route="r10" depart="4188" />
 <vehicle id="v_388" type="Car" route="r10" depart="4189" />
 <vehicle id="v_389" type="Car" route="r10" depart="4190" />
 <vehicle id="v_390" type="Car" route="r1" depart="4192" />
 <vehicle id="v_391" type="Car" route="r1" depart="4192" />
 <vehicle id="v_392" type="Car" route="r3" depart="4192" />
 <vehicle id="v_393" type="Car" route="r1" depart="4193" />
 <vehicle id="v_394" type="Car" route="r9" depart="4194" />
 <vehicle id="v_395" type="Car" route="r11" depart="4196" />
 <vehicle id="v_396" type="Car" route="r10" depart="4199" />
 <vehicle id="v_397" type="Car" route="r14" depart="4200" />
 <vehicle id="v_398" type="Car" route="r12" depart="4200" />
 <vehicle id="v_399" type="Car" route="r13" depart="4203" />
 <vehicle id="v_400" type="Car" route="r3" depart="4205" />
 <vehicle id="v_401" type="Car" route="r7" depart="4210" />
 <vehicle id="v_402" type="Car" route="r4" depart="4212" />
 <vehicle id="v_403" type="Car" route="r7" depart="4216" />
 <vehicle id="v_404" type="Car" route="r3" depart="4216" />
 <vehicle id="v_405" type="Car" route="r9" depart="4218" />
 <vehicle id="v_406" type="Car" route="r14" depart="4221" />
 <vehicle id="v_407" type="Car" route="r11" depart="4221" />
 <vehicle id="v_408" type="Car" route="r5" depart="4221" />
 <vehicle id="v_409" type="Car" route="r8" depart="4222" />
 <vehicle id="v_410" type="Car" route="r11" depart="4223" />
 <vehicle id="v_411" type="Car" route="r4" depart="4226" />
 <vehicle id="v_412" type="Car" route="r12" depart="4226" />
 <vehicle id="v_413" type="Car" route="r4" depart="4229" />
 <vehicle id="v_414" type="Car" route="r8" depart="4230" />
 <vehicle id="v_415" type="Car" route="r5" depart="4231" />
 <vehicle id="v_416" type="Car" route="r4" depart="4232" />
 <vehicle id="v_417" type="Car" route="r8" depart="4237" />
 <vehicle id="v_418" type="Car" route="r12" depart="4238" />
 <vehicle id="v_419" type="Car" route="r15" depart="4238" />
 <vehicle id="v_420" type="Car" route="r7" depart="4239" />
 <vehicle id="v_421" type="Car" route="r11" depart="4239" />
 <vehicle id="v_422" type="Car" route="r6" depart="4243" />
 <vehicle id="v_423" type="Car" route="r10" depart="4245" />
 <vehicle id="v_424" type="Car" route="r10" depart="4247" />
 <vehicle id="v_425" type="Car" route="r3" depart="4248" />
 <vehicle id="v_426" type="Car" route="r16" depart="4249" />
 <vehicle id="v_427" type="Car" route="r12" depart="4255" />
 <vehicle id="v_428" type="Car" route="r3" depart="4260" />
 <vehicle id="v_429" type="Car" route="r15" depart="4261" />
 <vehicle id="v_430" type="Car" route="r9" depart="4263" />
 <vehicle id="v_431" type="Car" route="r7" depart="4266" />
 <vehicle id="v_432" type="Car" route="r1" depart="4267" />
 <vehicle id="v_433" type="Car" route="r8" depart="4268" />
 <vehicle id="v_434" type="Car" route="r1" depart="4268" />
 <vehicle id="v_435" type="Car" route="r4" depart="4271" />
 <vehicle id="v_436" type="Car" route="r11" depart="4272" />
 <vehicle id="v_437" type="Car" route="r13" depart="4273" />
 <vehicle id="v_438" type="Car" route="r10" depart="4273" />
 <vehicle id="v_439" type="Car" route="r12" depart="4278" />
 <vehicle id="v_440" type="Car" route="r10" depart="4279" />
 <vehicle id="v_441" type="Car" route="r13" depart="4282" />
 <vehicle id="v_442" type="Car" route="r9" depart="4282" />
 <vehicle id="v_443" type="Car" route="r5" depart="4283" />
 <vehicle id="v_444" type="Car" route="r7" depart="4288" />
 <vehicle id="v_445" type="Car" route="r12" depart="4291" />
 <vehicle id="v_446" type="Car" route="r13" depart="4294" />
 <vehicle id="v_447" type="Car" route="r6" depart="4295" />
 <vehicle id="v_448" type="Car" route="r14" depart="4296" />
 <vehicle id="v_449" type="Car" route="r2" depart="4296" />
 <vehicle id="v_450" type="Car" route="r11" depart="4297" />
 <vehicle id="v_451" type="Car" route="r13" depart="4297" />
 <vehicle id="v_452" type="Car" route="r9" depart="4301" />
 <vehicle id="v_453" type="Car" route="r12" depart="4301" />
 <vehicle id="v_454" type="Car" route="r5" depart="4301" />
 <vehicle id="v_455" type="Car" route="r9" depart="4305" />
 <vehicle id="v_456" type="Car" route="r4" depart="4306" />
 <vehicle id="v_457" type="Car" route="r15" depart="4306" />
 <vehicle id="v_458" type="Car" route="r16" depart="4307" />
 <vehicle id="v_459" type="Car" route="r6" depart="4308" />
 <vehicle id="v_460" type="Car" route="r10" depart="4311" />
 <vehicle id="v_461" type="Car" route="r16" depart="4314" />
 <vehicle id="v_462" type="Car" route="r12" depart="4315" />
 <vehicle id="v_463" type="Car" route="r12" depart="4315" />
 <vehicle id="v_464" type="Car" route="r9" depart="4316" />
 <vehicle id="v_465" type="Car" route="r9" depart="4316" />
 <vehicle id="v_466" type="Car" route="r2" depart="4319" />
 <vehicle id="v_467" type="Car" route="r3" depart="4320" />
 <vehicle id="v_468" type="Car" route="r10" depart="4321" />
 <vehicle id="v_469" type="Car" route="r12" depart="4322" />
 <vehicle id="v_470" type="Car" route="r15" depart="4326" />
 <vehicle id="v_471" type="Car" route="r2" depart="4326" />